ES11_EXP_POWERS.CSV
Element, Terminal, P(kW), Q(kvar),  P_Normal, Q_Normal, P_Emergency, Q_Emergency
"Line.L_BSB_MT_8922"    ,   1,     -2956.8,     -1370.6,         0.0,         0.0,         0.0,         0.0
"Line.L_BSB_MT_8922"    ,   2,      2958.3,      1371.5
"Line.L_BSB_MT_639"     ,   1,        10.4,         4.7,         0.0,         0.0,         0.0,         0.0
"Line.L_BSB_MT_639"     ,   2,       -10.4,        -4.7
"Line.L_BSB_MT_3447"    ,   1,        -0.0,         0.0,         0.0,         0.0,         0.0,         0.0
"Line.L_BSB_MT_3447"    ,   2,         0.0,        -0.0
"Line.L_BSB_MT_3001"    ,   1,        -7.3,        -3.3,         0.0,         0.0,         0.0,         0.0
"Line.L_BSB_MT_3001"    ,   2,         7.3,         3.3
"Line.L_BSB_MT_3004"    ,   1,      -216.1,       -98.0,         0.0,         0.0,         0.0,         0.0
"Line.L_BSB_MT_3004"    ,   2,       216.1,        98.1
"Line.L_BSB_MT_3005"    ,   1,      -860.8,      -390.8,         0.0,         0.0,         0.0,         0.0
"Line.L_BSB_MT_3005"    ,   2,       860.9,       390.8
"Line.L_BSB_MT_3006"    ,   1,      -217.4,       -98.6,         0.0,         0.0,         0.0,         0.0
"Line.L_BSB_MT_3006"    ,   2,       217.4,        98.6
"Line.L_BSB_MT_3007"    ,   1,        76.3,        34.6,         0.0,         0.0,         0.0,         0.0
"Line.L_BSB_MT_3007"    ,   2,       -76.3,       -34.6
"Line.L_BSB_MT_3015"    ,   1,        54.1,        24.6,         0.0,         0.0,         0.0,         0.0
"Line.L_BSB_MT_3015"    ,   2,       -54.1,       -24.6
"Line.L_BSB_MT_3016"    ,   1,       180.2,        81.8,         0.0,         0.0,         0.0,         0.0
"Line.L_BSB_MT_3016"    ,   2,      -180.2,       -81.8
"Line.L_BSB_MT_3019"    ,   1,      -643.1,      -292.0,         0.0,         0.0,         0.0,         0.0
"Line.L_BSB_MT_3019"    ,   2,       643.2,       292.0
"Line.L_BSB_MT_3020"    ,   1,       108.7,        49.3,         0.0,         0.0,         0.0,         0.0
"Line.L_BSB_MT_3020"    ,   2,      -108.7,       -49.3
"Line.L_BSB_MT_3021"    ,   1,        -0.0,        -0.0,         0.0,         0.0,         0.0,         0.0
"Line.L_BSB_MT_3021"    ,   2,         0.0,        -0.0
"Line.L_BSB_MT_3022"    ,   1,        -0.0,        -0.0,         0.0,         0.0,         0.0,         0.0
"Line.L_BSB_MT_3022"    ,   2,         0.0,         0.0
"Line.L_BSB_MT_3023"    ,   1,         0.0,         0.0,         0.0,         0.0,         0.0,         0.0
"Line.L_BSB_MT_3023"    ,   2,        -0.0,        -0.0
"Line.L_BSB_MT_3025"    ,   1,       643.1,       292.0,         0.0,         0.0,         0.0,         0.0
"Line.L_BSB_MT_3025"    ,   2,      -643.0,      -291.9
"Line.L_BSB_MT_3026"    ,   1,      -642.8,      -291.8,         0.0,         0.0,         0.0,         0.0
"Line.L_BSB_MT_3026"    ,   2,       642.9,       291.8
"Line.L_BSB_MT_3027"    ,   1,      -642.7,      -291.7,         0.0,         0.0,         0.0,         0.0
"Line.L_BSB_MT_3027"    ,   2,       642.8,       291.8
"Line.L_BSB_MT_3028"    ,   1,      -620.8,      -281.8,         0.0,         0.0,         0.0,         0.0
"Line.L_BSB_MT_3028"    ,   2,       620.9,       281.8
"Line.L_BSB_MT_3029"    ,   1,      -620.6,      -281.6,         0.0,         0.0,         0.0,         0.0
"Line.L_BSB_MT_3029"    ,   2,       620.7,       281.7
"Line.L_BSB_MT_3030"    ,   1,        -0.0,         0.0,         0.0,         0.0,         0.0,         0.0
"Line.L_BSB_MT_3030"    ,   2,         0.0,        -0.0
"Line.L_BSB_MT_3031"    ,   1,       270.3,       122.7,         0.0,         0.0,         0.0,         0.0
"Line.L_BSB_MT_3031"    ,   2,      -270.3,      -122.7
"Line.L_BSB_MT_3032"    ,   1,         0.0,         0.0,         0.0,         0.0,         0.0,         0.0
"Line.L_BSB_MT_3032"    ,   2,        -0.0,        -0.0
"Line.L_BSB_MT_3049"    ,   1,        -7.8,        -3.5,         0.0,         0.0,         0.0,         0.0
"Line.L_BSB_MT_3049"    ,   2,         7.8,         3.5
"Line.L_BSB_MT_3050"    ,   1,       -84.2,       -38.2,         0.0,         0.0,         0.0,         0.0
"Line.L_BSB_MT_3050"    ,   2,        84.2,        38.2
"Line.L_BSB_MT_3051"    ,   1,       -84.2,       -38.2,         0.0,         0.0,         0.0,         0.0
"Line.L_BSB_MT_3051"    ,   2,        84.2,        38.2
"Line.L_BSB_MT_3052"    ,   1,       -84.2,       -38.2,         0.0,         0.0,         0.0,         0.0
"Line.L_BSB_MT_3052"    ,   2,        84.2,        38.2
"Line.L_BSB_MT_3053"    ,   1,       -25.9,       -11.8,         0.0,         0.0,         0.0,         0.0
"Line.L_BSB_MT_3053"    ,   2,        25.9,        11.8
"Line.L_BSB_MT_3054"    ,   1,       283.6,       128.8,         0.0,         0.0,         0.0,         0.0
"Line.L_BSB_MT_3054"    ,   2,      -283.6,      -128.8
"Line.L_BSB_MT_3055"    ,   1,      -270.3,      -122.6,         0.0,         0.0,         0.0,         0.0
"Line.L_BSB_MT_3055"    ,   2,       270.3,       122.7
"Line.L_BSB_MT_3056"    ,   1,      -216.1,       -98.0,         0.0,         0.0,         0.0,         0.0
"Line.L_BSB_MT_3056"    ,   2,       216.1,        98.0
"Line.L_BSB_MT_3057"    ,   1,       306.3,       139.0,         0.0,         0.0,         0.0,         0.0
"Line.L_BSB_MT_3057"    ,   2,      -306.2,      -139.0
"Line.L_BSB_MT_3058"    ,   1,       306.2,       139.0,         0.0,         0.0,         0.0,         0.0
"Line.L_BSB_MT_3058"    ,   2,      -306.2,      -138.9
"Line.L_BSB_MT_3059"    ,   1,       306.1,       138.9,         0.0,         0.0,         0.0,         0.0
"Line.L_BSB_MT_3059"    ,   2,      -306.0,      -138.9
"Line.L_BSB_MT_101"     ,   1,     -1994.8,      -909.6,         0.0,         0.0,         0.0,         0.0
"Line.L_BSB_MT_101"     ,   2,      1996.2,       910.5
"Line.L_BSB_MT_102"     ,   1,       -54.5,       -24.7,         0.0,         0.0,         0.0,         0.0
"Line.L_BSB_MT_102"     ,   2,        54.5,        24.7
"Line.L_BSB_MT_7583"    ,   1,        68.6,        31.1,         0.0,         0.0,         0.0,         0.0
"Line.L_BSB_MT_7583"    ,   2,       -68.6,       -31.1
"Line.L_BSB_MT_7586"    ,   1,      -241.9,      -109.8,         0.0,         0.0,         0.0,         0.0
"Line.L_BSB_MT_7586"    ,   2,       241.9,       109.8
"Line.L_BSB_MT_7587"    ,   1,       194.9,        88.5,         0.0,         0.0,         0.0,         0.0
"Line.L_BSB_MT_7587"    ,   2,      -194.9,       -88.5
"Line.L_BSB_MT_7588"    ,   1,       270.0,       122.5,         0.0,         0.0,         0.0,         0.0
"Line.L_BSB_MT_7588"    ,   2,      -270.0,      -122.5
"Line.L_BSB_MT_76"      ,   1,     -2095.2,      -957.0,         0.0,         0.0,         0.0,         0.0
"Line.L_BSB_MT_76"      ,   2,      2096.7,       957.9
"Line.L_BSB_MT_7627"    ,   1,        64.4,        29.2,         0.0,         0.0,         0.0,         0.0
"Line.L_BSB_MT_7627"    ,   2,       -64.4,       -29.2
"Line.L_BSB_MT_7629"    ,   1,       180.2,        81.8,         0.0,         0.0,         0.0,         0.0
"Line.L_BSB_MT_7629"    ,   2,      -180.2,       -81.8
"Line.L_BSB_MT_3066"    ,   1,      -108.0,       -49.0,         0.0,         0.0,         0.0,         0.0
"Line.L_BSB_MT_3066"    ,   2,       108.0,        49.0
"Line.L_BSB_MT_3067"    ,   1,       306.1,       138.9,         0.0,         0.0,         0.0,         0.0
"Line.L_BSB_MT_3067"    ,   2,      -306.1,      -138.9
"Line.L_BSB_MT_3068"    ,   1,       270.0,       122.5,         0.0,         0.0,         0.0,         0.0
"Line.L_BSB_MT_3068"    ,   2,      -269.9,      -122.5
"Line.L_BSB_MT_3069"    ,   1,       215.9,        98.0,         0.0,         0.0,         0.0,         0.0
"Line.L_BSB_MT_3069"    ,   2,      -215.9,       -98.0
"Line.L_BSB_MT_3070"    ,   1,        64.4,        29.2,         0.0,         0.0,         0.0,         0.0
"Line.L_BSB_MT_3070"    ,   2,       -64.4,       -29.2
"Line.L_BSB_MT_3071"    ,   1,        64.4,        29.2,         0.0,         0.0,         0.0,         0.0
"Line.L_BSB_MT_3071"    ,   2,       -64.4,       -29.2
"Line.L_BSB_MT_3072"    ,   1,        64.4,        29.2,         0.0,         0.0,         0.0,         0.0
"Line.L_BSB_MT_3072"    ,   2,       -64.4,       -29.2
"Line.L_BSB_MT_3073"    ,   1,        64.4,        29.2,         0.0,         0.0,         0.0,         0.0
"Line.L_BSB_MT_3073"    ,   2,       -64.4,       -29.2
"Line.L_BSB_MT_3074"    ,   1,        86.0,        39.1,         0.0,         0.0,         0.0,         0.0
"Line.L_BSB_MT_3074"    ,   2,       -86.0,       -39.1
"Line.L_BSB_MT_3075"    ,   1,        86.0,        39.1,         0.0,         0.0,         0.0,         0.0
"Line.L_BSB_MT_3075"    ,   2,       -86.0,       -39.1
"Line.L_BSB_MT_3076"    ,   1,       194.4,        88.2,         0.0,         0.0,         0.0,         0.0
"Line.L_BSB_MT_3076"    ,   2,      -194.3,       -88.2
"Line.L_BSB_MT_3077"    ,   1,       194.4,        88.2,         0.0,         0.0,         0.0,         0.0
"Line.L_BSB_MT_3077"    ,   2,      -194.4,       -88.2
"Line.L_BSB_MT_3078"    ,   1,       545.0,       247.4,         0.0,         0.0,         0.0,         0.0
"Line.L_BSB_MT_3078"    ,   2,      -544.8,      -247.3
"Line.L_BSB_MT_3079"    ,   1,       544.8,       247.3,         0.0,         0.0,         0.0,         0.0
"Line.L_BSB_MT_3079"    ,   2,      -544.6,      -247.2
"Line.L_BSB_MT_3080"    ,   1,         0.0,         0.0,         0.0,         0.0,         0.0,         0.0
"Line.L_BSB_MT_3080"    ,   2,        -0.0,        -0.0
"Line.L_BSB_MT_3081"    ,   1,       194.9,        88.5,         0.0,         0.0,         0.0,         0.0
"Line.L_BSB_MT_3081"    ,   2,      -194.8,       -88.5
"Line.L_BSB_MT_3082"    ,   1,       194.8,        88.5,         0.0,         0.0,         0.0,         0.0
"Line.L_BSB_MT_3082"    ,   2,      -194.8,       -88.5
"Line.L_BSB_MT_3083"    ,   1,       194.8,        88.5,         0.0,         0.0,         0.0,         0.0
"Line.L_BSB_MT_3083"    ,   2,      -194.8,       -88.5
"Line.L_BSB_MT_3084"    ,   1,       194.8,        88.5,         0.0,         0.0,         0.0,         0.0
"Line.L_BSB_MT_3084"    ,   2,      -194.8,       -88.4
"Line.L_BSB_MT_3085"    ,   1,       194.8,        88.4,         0.0,         0.0,         0.0,         0.0
"Line.L_BSB_MT_3085"    ,   2,      -194.7,       -88.4
"Line.L_BSB_MT_3086"    ,   1,       194.7,        88.4,         0.0,         0.0,         0.0,         0.0
"Line.L_BSB_MT_3086"    ,   2,      -194.7,       -88.4
"Line.L_BSB_MT_3087"    ,   1,       194.7,        88.4,         0.0,         0.0,         0.0,         0.0
"Line.L_BSB_MT_3087"    ,   2,      -194.7,       -88.4
"Line.L_BSB_MT_3088"    ,   1,       194.7,        88.4,         0.0,         0.0,         0.0,         0.0
"Line.L_BSB_MT_3088"    ,   2,      -194.7,       -88.4
"Line.L_BSB_MT_3089"    ,   1,       192.1,        87.2,         0.0,         0.0,         0.0,         0.0
"Line.L_BSB_MT_3089"    ,   2,      -192.1,       -87.2
"Line.L_BSB_MT_3090"    ,   1,       192.0,        87.2,         0.0,         0.0,         0.0,         0.0
"Line.L_BSB_MT_3090"    ,   2,      -192.0,       -87.2
"Line.L_BSB_MT_3091"    ,   1,       192.0,        87.2,         0.0,         0.0,         0.0,         0.0
"Line.L_BSB_MT_3091"    ,   2,      -192.0,       -87.2
"Line.L_BSB_MT_3091A"   ,   1,      -192.0,       -87.2,         0.0,         0.0,         0.0,         0.0
"Line.L_BSB_MT_3091A"   ,   2,       192.0,        87.2
"Line.L_BSB_MT_3092"    ,   1,       192.0,        87.2,         0.0,         0.0,         0.0,         0.0
"Line.L_BSB_MT_3092"    ,   2,      -192.0,       -87.2
"Line.L_BSB_MT_3093"    ,   1,       192.0,        87.1,         0.0,         0.0,         0.0,         0.0
"Line.L_BSB_MT_3093"    ,   2,      -191.9,       -87.1
"Line.L_BSB_MT_3094"    ,   1,       191.9,        87.1,         0.0,         0.0,         0.0,         0.0
"Line.L_BSB_MT_3094"    ,   2,      -191.9,       -87.1
"Line.L_BSB_MT_3110"    ,   1,       867.3,       394.4,         0.0,         0.0,         0.0,         0.0
"Line.L_BSB_MT_3110"    ,   2,      -867.1,      -394.3
"Line.L_BSB_MT_3111"    ,   1,     -1991.6,      -907.7,         0.0,         0.0,         0.0,         0.0
"Line.L_BSB_MT_3111"    ,   2,      1992.7,       908.4
"Line.L_BSB_MT_3118"    ,   1,         0.0,        -0.0,         0.0,         0.0,         0.0,         0.0
"Line.L_BSB_MT_3118"    ,   2,         0.0,         0.0
"Line.L_BSB_MT_3119"    ,   1,      -406.3,      -199.9,         0.0,         0.0,         0.0,         0.0
"Line.L_BSB_MT_3119"    ,   2,       406.3,       199.9
"Line.L_BSB_MT_3120"    ,   1,       406.3,       199.9,         0.0,         0.0,         0.0,         0.0
"Line.L_BSB_MT_3120"    ,   2,      -406.3,      -199.9
"Line.L_BSB_MT_3121"    ,   1,        24.1,        10.9,         0.0,         0.0,         0.0,         0.0
"Line.L_BSB_MT_3121"    ,   2,       -24.1,       -10.9
"Line.L_BSB_MT_3122"    ,   1,         0.0,         0.0,         0.0,         0.0,         0.0,         0.0
"Line.L_BSB_MT_3122"    ,   2,        -0.0,        -0.0
"Line.L_BSB_MT_3123"    ,   1,        24.1,        10.9,         0.0,         0.0,         0.0,         0.0
"Line.L_BSB_MT_3123"    ,   2,       -24.1,       -10.9
"Line.L_BSB_MT_3124"    ,   1,         0.0,         0.0,         0.0,         0.0,         0.0,         0.0
"Line.L_BSB_MT_3124"    ,   2,        -0.0,        -0.0
"Line.L_BSB_MT_3125"    ,   1,         0.0,         0.0,         0.0,         0.0,         0.0,         0.0
"Line.L_BSB_MT_3125"    ,   2,        -0.0,        -0.0
"Line.L_BSB_MT_3126"    ,   1,     -2546.5,     -1168.3,         0.0,         0.0,         0.0,         0.0
"Line.L_BSB_MT_3126"    ,   2,      2548.0,      1169.2
"Line.L_BSB_MT_3127"    ,   1,     -2543.3,     -1166.5,         0.0,         0.0,         0.0,         0.0
"Line.L_BSB_MT_3127"    ,   2,      2545.0,      1167.5
"Line.L_BSB_MT_3128"    ,   1,     -2539.8,     -1164.4,         0.0,         0.0,         0.0,         0.0
"Line.L_BSB_MT_3128"    ,   2,      2541.6,      1165.5
"Line.L_BSB_MT_3129"    ,   1,     -2437.0,     -1116.1,         0.0,         0.0,         0.0,         0.0
"Line.L_BSB_MT_3129"    ,   2,      2438.5,      1116.9
"Line.L_BSB_MT_3130"    ,   1,     -2423.0,     -1108.9,         0.0,         0.0,         0.0,         0.0
"Line.L_BSB_MT_3130"    ,   2,      2424.8,      1110.0
"Line.L_BSB_MT_3140"    ,   1,     -2127.9,      -973.4,         0.0,         0.0,         0.0,         0.0
"Line.L_BSB_MT_3140"    ,   2,      2129.3,       974.3
"Line.L_BSB_MT_3141"    ,   1,     -2110.3,      -964.5,         0.0,         0.0,         0.0,         0.0
"Line.L_BSB_MT_3141"    ,   2,      2111.5,       965.2
"Line.L_BSB_MT_3142"    ,   1,        76.3,        34.6,         0.0,         0.0,         0.0,         0.0
"Line.L_BSB_MT_3142"    ,   2,       -76.3,       -34.6
"Line.L_BSB_MT_3143"    ,   1,     -2008.0,      -916.0,         0.0,         0.0,         0.0,         0.0
"Line.L_BSB_MT_3143"    ,   2,      2009.7,       917.0
"Line.L_BSB_MT_3145"    ,   1,      1990.4,       907.0,         0.0,         0.0,         0.0,         0.0
"Line.L_BSB_MT_3145"    ,   2,     -1989.3,      -906.4
"Line.L_BSB_MT_3146"    ,   1,       306.2,       139.0,         0.0,         0.0,         0.0,         0.0
"Line.L_BSB_MT_3146"    ,   2,      -306.2,      -139.0
"Line.L_BSB_MT_6412"    ,   1,       108.0,        49.0,         0.0,         0.0,         0.0,         0.0
"Line.L_BSB_MT_6412"    ,   2,      -108.0,       -49.0
"Line.L_BSB_MT_6413"    ,   1,       107.9,        49.0,         0.0,         0.0,         0.0,         0.0
"Line.L_BSB_MT_6413"    ,   2,      -107.9,       -49.0
"Line.L_BSB_MT_642"     ,   1,      -191.9,       -87.1,         0.0,         0.0,         0.0,         0.0
"Line.L_BSB_MT_642"     ,   2,       191.9,        87.1
"Line.L_BSB_MT_6448"    ,   1,      -729.4,      -331.3,         0.0,         0.0,         0.0,         0.0
"Line.L_BSB_MT_6448"    ,   2,       729.6,       331.4
"Line.L_BSB_MT_645"     ,   1,       -84.2,       -38.2,         0.0,         0.0,         0.0,         0.0
"Line.L_BSB_MT_645"     ,   2,        84.2,        38.2
"Line.L_BSB_MT_646"     ,   1,       180.2,        81.8,         0.0,         0.0,         0.0,         0.0
"Line.L_BSB_MT_646"     ,   2,      -180.2,       -81.8
...
"Line.L_65471832"       ,   1,      3090.2,      1447.3,         0.0,         0.0,         0.0,         0.0
"Line.L_65471832"       ,   2,     -3086.5,     -1445.2
"Line.L_65453032"       ,   1,      3086.5,      1445.2,         0.0,         0.0,         0.0,         0.0
"Line.L_65453032"       ,   2,     -3083.4,     -1443.4
"Line.L_65453368"       ,   1,      3083.4,      1443.4,         0.0,         0.0,         0.0,         0.0
"Line.L_65453368"       ,   2,     -3079.9,     -1441.4
"Line.L_65453357"       ,   1,      3079.9,      1441.4,         0.0,         0.0,         0.0,         0.0
"Line.L_65453357"       ,   2,     -3076.6,     -1439.4
"Line.L_65453017"       ,   1,      3076.6,      1439.4,         0.0,         0.0,         0.0,         0.0
"Line.L_65453017"       ,   2,     -3073.3,     -1437.5
"Line.L_65453014"       ,   1,      3073.3,      1437.5,         0.0,         0.0,         0.0,         0.0
"Line.L_65453014"       ,   2,     -3070.6,     -1435.9
"Line.L_65453011"       ,   1,      3070.6,      1435.9,         0.0,         0.0,         0.0,         0.0
"Line.L_65453011"       ,   2,     -3067.2,     -1433.9
"Line.L_65469882"       ,   1,      3067.2,      1433.9,         0.0,         0.0,         0.0,         0.0
"Line.L_65469882"       ,   2,     -3064.5,     -1432.3
"Line.L_65434493"       ,   1,      3064.5,      1432.3,         0.0,         0.0,         0.0,         0.0
"Line.L_65434493"       ,   2,     -3061.9,     -1430.8
"Line.L_65434695"       ,   1,      3061.9,      1430.8,         0.0,         0.0,         0.0,         0.0
"Line.L_65434695"       ,   2,     -3055.9,     -1427.3
"Line.L_65434691"       ,   1,      3055.9,      1427.3,         0.0,         0.0,         0.0,         0.0
"Line.L_65434691"       ,   2,     -3049.8,     -1423.8
"Line.L_65434677"       ,   1,      3049.8,      1423.8,         0.0,         0.0,         0.0,         0.0
"Line.L_65434677"       ,   2,     -3044.9,     -1420.9
"Line.L_65434653"       ,   1,      3044.9,      1420.9,         0.0,         0.0,         0.0,         0.0
"Line.L_65434653"       ,   2,     -3042.0,     -1419.2
"Line.L_65434649"       ,   1,      3042.0,      1419.2,         0.0,         0.0,         0.0,         0.0
"Line.L_65434649"       ,   2,     -3037.4,     -1416.6
"Line.L_65434644"       ,   1,      3037.4,      1416.6,         0.0,         0.0,         0.0,         0.0
"Line.L_65434644"       ,   2,     -3033.1,     -1414.0
"Line.L_65434641"       ,   1,      3033.1,      1414.0,         0.0,         0.0,         0.0,         0.0
"Line.L_65434641"       ,   2,     -3028.3,     -1411.2
"Line.L_65434638"       ,   1,      3028.3,      1411.2,         0.0,         0.0,         0.0,         0.0
"Line.L_65434638"       ,   2,     -3023.7,     -1408.6
"Line.L_65434634"       ,   1,      3023.7,      1408.6,         0.0,         0.0,         0.0,         0.0
"Line.L_65434634"       ,   2,     -3019.9,     -1406.3
"Line.L_65434629"       ,   1,      3019.9,      1406.3,         0.0,         0.0,         0.0,         0.0
"Line.L_65434629"       ,   2,     -3015.3,     -1403.6
"Line.L_65435186"       ,   1,      3015.3,      1403.6,         0.0,         0.0,         0.0,         0.0
"Line.L_65435186"       ,   2,     -3010.2,     -1400.7
"Line.L_65434477"       ,   1,      3010.2,      1400.7,         0.0,         0.0,         0.0,         0.0
"Line.L_65434477"       ,   2,     -3006.4,     -1398.5
"Line.L_65435191"       ,   1,      3006.4,      1398.5,         0.0,         0.0,         0.0,         0.0
"Line.L_65435191"       ,   2,     -3002.2,     -1396.0
"Line.L_65434338"       ,   1,      3002.2,      1396.0,         0.0,         0.0,         0.0,         0.0
"Line.L_65434338"       ,   2,     -2997.7,     -1393.4
"Line.L_65434341"       ,   1,      2997.7,      1393.4,         0.0,         0.0,         0.0,         0.0
"Line.L_65434341"       ,   2,     -2993.7,     -1391.1
"Line.L_65434429"       ,   1,      2993.7,      1391.1,         0.0,         0.0,         0.0,         0.0
"Line.L_65434429"       ,   2,     -2988.9,     -1388.2
"Line.L_65434434"       ,   1,      2988.9,      1388.2,         0.0,         0.0,         0.0,         0.0
"Line.L_65434434"       ,   2,     -2983.3,     -1385.0
"Line.L_65434437"       ,   1,      2983.3,      1385.0,         0.0,         0.0,         0.0,         0.0
"Line.L_65434437"       ,   2,     -2978.4,     -1382.1
"Line.L_65434440"       ,   1,      2978.4,      1382.1,         0.0,         0.0,         0.0,         0.0
"Line.L_65434440"       ,   2,     -2973.1,     -1379.0
"Line.L_65434443"       ,   1,      2973.1,      1379.0,         0.0,         0.0,         0.0,         0.0
"Line.L_65434443"       ,   2,     -2967.5,     -1375.8
"Line.L_65472158"       ,   1,        -0.0,        -0.0,         0.0,         0.0,         0.0,         0.0
"Line.L_65472158"       ,   2,         0.0,        -0.0
"Line.L_65434273"       ,   1,        -0.0,        -0.0,         0.0,         0.0,         0.0,         0.0
"Line.L_65434273"       ,   2,        -0.0,        -0.0
"Line.L_65434274"       ,   1,        -0.0,        -0.0,         0.0,         0.0,         0.0,         0.0
"Line.L_65434274"       ,   2,        -0.0,         0.0
"Line.L_65434275"       ,   1,         0.0,        -0.0,         0.0,         0.0,         0.0,         0.0
"Line.L_65434275"       ,   2,        -0.0,         0.0
"Line.L_65434269"       ,   1,         0.0,        -0.0,         0.0,         0.0,         0.0,         0.0
"Line.L_65434269"       ,   2,        -0.0,         0.0
"Line.L_65434270"       ,   1,         0.0,        -0.0,         0.0,         0.0,         0.0,         0.0
"Line.L_65434270"       ,   2,        -0.0,         0.0
"Line.L_65434271"       ,   1,        -0.0,        -0.0,         0.0,         0.0,         0.0,         0.0
"Line.L_65434271"       ,   2,         0.0,         0.0
"Line.L_65434277"       ,   1,        -0.0,        -0.0,         0.0,         0.0,         0.0,         0.0
"Line.L_65434277"       ,   2,         0.0,         0.0
"Line.L_65434278"       ,   1,        -0.0,        -0.0,         0.0,         0.0,         0.0,         0.0
"Line.L_65434278"       ,   2,         0.0,         0.0
"Line.L_65434279"       ,   1,        -0.0,        -0.0,         0.0,         0.0,         0.0,         0.0
"Line.L_65434279"       ,   2,         0.0,         0.0
"Line.L_65434280"       ,   1,        -0.0,        -0.0,         0.0,         0.0,         0.0,         0.0
"Line.L_65434280"       ,   2,         0.0,         0.0
"Line.L_65434281"       ,   1,         0.0,        -0.0,         0.0,         0.0,         0.0,         0.0
"Line.L_65434281"       ,   2,        -0.0,         0.0
"Line.L_65434295"       ,   1,        -0.0,        -0.0,         0.0,         0.0,         0.0,         0.0
"Line.L_65434295"       ,   2,        -0.0,         0.0
"Line.L_65434297"       ,   1,        -0.0,        -0.0,         0.0,         0.0,         0.0,         0.0
"Line.L_65434297"       ,   2,        -0.0,         0.0
"Line.L_TR_FIC_GER_41"  ,   1,      3106.3,      1456.7,         0.0,         0.0,         0.0,         0.0
"Line.L_TR_FIC_GER_41"  ,   2,     -3103.0,     -1454.8
"Line.L_TR_FIC_DJ_10"   ,   1,      3103.0,      1454.8,         0.0,         0.0,         0.0,         0.0
"Line.L_TR_FIC_DJ_10"   ,   2,     -3098.2,     -1452.0
"Line.L_TR_MT_INC_20"   ,   1,     -2967.0,     -1375.5,         0.0,         0.0,         0.0,         0.0
"Line.L_TR_MT_INC_20"   ,   2,      2967.5,      1375.8
"Line.L_65470334"       ,   1,         0.0,         0.0,         0.0,         0.0,         0.0,         0.0
"Line.L_65470334"       ,   2,        -0.0,        -0.0
"Line.L_65471839"       ,   1,      3098.2,      1452.0,         0.0,         0.0,         0.0,         0.0
"Line.L_65471839"       ,   2,     -3094.3,     -1449.7
"Line.L_65453058"       ,   1,      3094.3,      1449.7,         0.0,         0.0,         0.0,         0.0
"Line.L_65453058"       ,   2,     -3090.2,     -1447.3
"Line.L_BSB_MT_443"     ,   1,      -108.0,       -49.0,         0.0,         0.0,         0.0,         0.0
"Line.L_BSB_MT_443"     ,   2,       108.0,        49.0
"Line.L_BSB_MT_445"     ,   1,       194.9,        88.5,         0.0,         0.0,         0.0,         0.0
"Line.L_BSB_MT_445"     ,   2,      -194.9,       -88.5
"Line.SW_FW7908"        ,   1,       191.8,        87.1,         0.0,         0.0,         0.0,         0.0
"Line.SW_FW7908"        ,   2,      -191.8,       -87.1
"Line.SW_FK0882"        ,   1,      2443.8,      1120.1,         0.0,         0.0,         0.0,         0.0
"Line.SW_FK0882"        ,   2,     -2443.8,     -1120.1
"Line.SW_FP4033"        ,   1,         0.0,        -0.0,         0.0,         0.0,         0.0,         0.0
"Line.SW_FP4033"        ,   2,        -0.0,         0.0
"Line.SW_FP6954"        ,   1,        -0.0,        -0.0,         0.0,         0.0,         0.0,         0.0
"Line.SW_FP6954"        ,   2,         0.0,         0.0
"Line.SW_FIC2498"       ,   1,         0.0,         0.0,         0.0,         0.0,         0.0,         0.0
"Line.SW_FIC2498"       ,   2,        -0.0,        -0.0
"Line.SW_FK0957"        ,   1,         0.0,        -0.0,         0.0,         0.0,         0.0,         0.0
"Line.SW_FK0957"        ,   2,        -0.0,         0.0
"Line.SW_FU0103"        ,   1,      -121.0,       -54.9,         0.0,         0.0,         0.0,         0.0
"Line.SW_FU0103"        ,   2,       121.0,        54.9
"Line.SW_FX9286"        ,   1,       -17.0,        -7.7,         0.0,         0.0,         0.0,         0.0
"Line.SW_FX9286"        ,   2,        17.0,         7.7
"Line.SW_FP7170"        ,   1,        -0.0,        -0.0,         0.0,         0.0,         0.0,         0.0
"Line.SW_FP7170"        ,   2,         0.0,         0.0
"Line.SW_FW0113"        ,   1,         0.0,        -0.0,         0.0,         0.0,         0.0,         0.0
"Line.SW_FW0113"        ,   2,        -0.0,         0.0
"Line.SW_FP7613F"       ,   1,      -378.6,      -171.8,         0.0,         0.0,         0.0,         0.0
"Line.SW_FP7613F"       ,   2,       378.6,       171.8
"Line.SW_FW7750"        ,   1,        -0.0,         0.0,         0.0,         0.0,         0.0,         0.0
"Line.SW_FW7750"        ,   2,         0.0,        -0.0
"Line.SW_FK0956"        ,   1,      -216.1,       -98.1,         0.0,         0.0,         0.0,         0.0
"Line.SW_FK0956"        ,   2,       216.1,        98.1
"Line.SW_FZ3915"        ,   1,     -2106.9,      -962.5,         0.0,         0.0,         0.0,         0.0
"Line.SW_FZ3915"        ,   2,      2106.9,       962.5
"Line.SW_FP3039"        ,   1,     -2013.1,      -919.0,         0.0,         0.0,         0.0,         0.0
"Line.SW_FP3039"        ,   2,      2013.1,       919.0
"Line.SW_FT1679"        ,   1,     -2126.6,      -972.6,         0.0,         0.0,         0.0,         0.0
"Line.SW_FT1679"        ,   2,      2126.6,       972.6
"Line.SW_FP4031"        ,   1,         0.0,        -0.0,         0.0,         0.0,         0.0,         0.0
"Line.SW_FP4031"        ,   2,        -0.0,         0.0
"Line.SW_FW8490"        ,   1,     -2094.1,      -956.4,         0.0,         0.0,         0.0,         0.0
"Line.SW_FW8490"        ,   2,      2094.1,       956.4
"Line.SW_ES11_SES"      ,   1,        -0.0,        -0.0,         0.0,         0.0,         0.0,         0.0
"Line.SW_ES11_SES"      ,   2,         0.0,         0.0
"Line.SW_FU1088"        ,   1,      -107.9,       -49.0,         0.0,         0.0,         0.0,         0.0
"Line.SW_FU1088"        ,   2,       107.9,        49.0
"Line.SW_FA0814"        ,   1,        -0.0,        -0.0,         0.0,         0.0,         0.0,         0.0
"Line.SW_FA0814"        ,   2,         0.0,         0.0
"Line.SW_FT1678"        ,   1,     -2006.3,      -915.0,         0.0,         0.0,         0.0,         0.0
"Line.SW_FT1678"        ,   2,      2006.3,       915.0
"Line.SW_FX0837"        ,   1,        -0.0,        -0.0,         0.0,         0.0,         0.0,         0.0
"Line.SW_FX0837"        ,   2,         0.0,         0.0
"Line.SW_FU0024"        ,   1,      2550.4,      1170.6,         0.0,         0.0,         0.0,         0.0
"Line.SW_FU0024"        ,   2,     -2550.4,     -1170.6
"Line.SW_FP8559"        ,   1,         0.0,        -0.0,         0.0,         0.0,         0.0,         0.0
"Line.SW_FP8559"        ,   2,        -0.0,         0.0
"Line.SW_FA0272"        ,   1,        -0.0,         0.0,         0.0,         0.0,         0.0,         0.0
"Line.SW_FA0272"        ,   2,         0.0,        -0.0
"Line.SW_FZ2829"        ,   1,         2.6,         1.2,         0.0,         0.0,         0.0,         0.0
"Line.SW_FZ2829"        ,   2,        -2.6,        -1.2
"Line.SW_FT7047"        ,   1,        -0.0,         0.0,         0.0,         0.0,         0.0,         0.0
"Line.SW_FT7047"        ,   2,         0.0,        -0.0
"Line.SW_FU0103F"       ,   1,      -121.0,       -54.9,         0.0,         0.0,         0.0,         0.0
"Line.SW_FU0103F"       ,   2,       121.0,        54.9
"Line.SW_FW8933"        ,   1,        -7.3,        -3.3,         0.0,         0.0,         0.0,         0.0
"Line.SW_FW8933"        ,   2,         7.3,         3.3
"Line.SW_FA9042"        ,   1,       -17.0,        -7.7,         0.0,         0.0,         0.0,         0.0
"Line.SW_FA9042"        ,   2,        17.0,         7.7
"Line.SW_FW0951"        ,   1,        -0.0,        -0.0,         0.0,         0.0,         0.0,         0.0
"Line.SW_FW0951"        ,   2,         0.0,         0.0
"Line.SW_FZ6330"        ,   1,         0.0,        -0.0,         0.0,         0.0,         0.0,         0.0
"Line.SW_FZ6330"        ,   2,        -0.0,         0.0
"Line.SW_FZ9176"        ,   1,         0.0,        -0.0,         0.0,         0.0,         0.0,         0.0
"Line.SW_FZ9176"        ,   2,        -0.0,         0.0
"Line.SW_FIC5535"       ,   1,         0.0,        -0.0,         0.0,         0.0,         0.0,         0.0
"Line.SW_FIC5535"       ,   2,        -0.0,         0.0
"Line.SW_FT2704"        ,   1,      -694.4,      -315.3,         0.0,         0.0,         0.0,         0.0
"Line.SW_FT2704"        ,   2,       694.4,       315.3
"Line.SW_FA9978"        ,   1,      -194.4,       -88.2,         0.0,         0.0,         0.0,         0.0
"Line.SW_FA9978"        ,   2,       194.4,        88.2
"Line.SW_FIC6257_RL"    ,   1,        -0.0,         0.0,         0.0,         0.0,         0.0,         0.0
"Line.SW_FIC6257_RL"    ,   2,         0.0,        -0.0
"Line.SW_FA9078"        ,   1,        -0.0,         0.0,         0.0,         0.0,         0.0,         0.0
"Line.SW_FA9078"        ,   2,         0.0,        -0.0
"Line.SW_FP7255_DP_33277",   1,      -406.2,      -199.9,         0.0,         0.0,         0.0,         0.0
"Line.SW_FP7255_DP_33277",   2,       406.2,       199.9
"Line.SW_FIC5601"       ,   1,         0.0,        -0.0,         0.0,         0.0,         0.0,         0.0
"Line.SW_FIC5601"       ,   2,        -0.0,         0.0
"Line.SW_FW7844"        ,   1,       -86.0,       -39.1,         0.0,         0.0,         0.0,         0.0
"Line.SW_FW7844"        ,   2,        86.0,        39.1
"Line.SW_FX9343"        ,   1,        15.5,         7.1,         0.0,         0.0,         0.0,         0.0
"Line.SW_FX9343"        ,   2,       -15.5,        -7.1
"Line.SW_FP4055"        ,   1,         0.0,         0.0,         0.0,         0.0,         0.0,         0.0
"Line.SW_FP4055"        ,   2,        -0.0,        -0.0
"Line.SW_FX9990"        ,   1,       205.3,        93.3,         0.0,         0.0,         0.0,         0.0
"Line.SW_FX9990"        ,   2,      -205.3,       -93.3
"Line.SW_FA9626"        ,   1,        -0.0,        -0.0,         0.0,         0.0,         0.0,         0.0
"Line.SW_FA9626"        ,   2,         0.0,         0.0
"Line.SW_FA9625"        ,   1,         0.0,        -0.0,         0.0,         0.0,         0.0,         0.0
"Line.SW_FA9625"        ,   2,        -0.0,         0.0
"Line.SW_FZ8025_DP_36563",   1,      -617.5,      -280.3,         0.0,         0.0,         0.0,         0.0
"Line.SW_FZ8025_DP_36563",   2,       617.5,       280.3
"Line.SW_FW9147"        ,   1,      -194.3,       -88.2,         0.0,         0.0,         0.0,         0.0
"Line.SW_FW9147"        ,   2,       194.3,        88.2
"Line.SW_FW9633"        ,   1,      -856.7,      -389.2,         0.0,         0.0,         0.0,         0.0
"Line.SW_FW9633"        ,   2,       856.7,       389.2
"Line.SW_FT6887"        ,   1,        -0.0,        -0.0,         0.0,         0.0,         0.0,         0.0
"Line.SW_FT6887"        ,   2,         0.0,         0.0
"Line.SW_FT1738"        ,   1,        -0.0,        -0.0,         0.0,         0.0,         0.0,         0.0
"Line.SW_FT1738"        ,   2,         0.0,         0.0
"Line.SW_FW2391"        ,   1,      -108.7,       -49.3,         0.0,         0.0,         0.0,         0.0
"Line.SW_FW2391"        ,   2,       108.7,        49.3
"Line.SW_FW9969"        ,   1,        -0.0,        -0.0,         0.0,         0.0,         0.0,         0.0
"Line.SW_FW9969"        ,   2,         0.0,         0.0
"Line.SW_FW0117"        ,   1,         0.0,        -0.0,         0.0,         0.0,         0.0,         0.0
"Line.SW_FW0117"        ,   2,        -0.0,         0.0
"Line.SW_FW8571"        ,   1,        -7.3,        -3.3,         0.0,         0.0,         0.0,         0.0
"Line.SW_FW8571"        ,   2,         7.3,         3.3
"Line.SW_FA9647"        ,   1,        -0.0,         0.0,         0.0,         0.0,         0.0,         0.0
"Line.SW_FA9647"        ,   2,         0.0,        -0.0
"Line.SW_FIC5947"       ,   1,        -0.0,        -0.0,         0.0,         0.0,         0.0,         0.0
"Line.SW_FIC5947"       ,   2,         0.0,         0.0
"Line.SW_FX3749"        ,   1,        -0.0,         0.0,         0.0,         0.0,         0.0,         0.0
"Line.SW_FX3749"        ,   2,         0.0,        -0.0
"Line.SW_FU0101"        ,   1,         0.0,        -0.0,         0.0,         0.0,         0.0,         0.0
"Line.SW_FU0101"        ,   2,        -0.0,         0.0
"Line.SW_FT6848"        ,   1,      -992.3,      -450.6,         0.0,         0.0,         0.0,         0.0
"Line.SW_FT6848"        ,   2,       992.3,       450.6
"Line.SW_FIC5669"       ,   1,        -0.0,        -0.0,         0.0,         0.0,         0.0,         0.0
"Line.SW_FIC5669"       ,   2,         0.0,         0.0
"Line.SW_FA0832"        ,   1,        -0.0,        -0.0,         0.0,         0.0,         0.0,         0.0
"Line.SW_FA0832"        ,   2,         0.0,         0.0
"Line.SW_FP0718"        ,   1,         0.0,        -0.0,         0.0,         0.0,         0.0,         0.0
"Line.SW_FP0718"        ,   2,        -0.0,         0.0
"Line.SW_FW0662"        ,   1,        -0.0,         0.0,         0.0,         0.0,         0.0,         0.0
"Line.SW_FW0662"        ,   2,         0.0,        -0.0
"Line.SW_FW0921"        ,   1,         0.0,         0.0,         0.0,         0.0,         0.0,         0.0
"Line.SW_FW0921"        ,   2,        -0.0,        -0.0
"Line.SW_FK0969"        ,   1,      -306.2,      -139.0,         0.0,         0.0,         0.0,         0.0
"Line.SW_FK0969"        ,   2,       306.2,       139.0
"Line.SW_FM0342"        ,   1,         0.0,        -0.0,         0.0,         0.0,         0.0,         0.0
"Line.SW_FM0342"        ,   2,        -0.0,         0.0
"Line.SW_FP2842"        ,   1,         0.0,        -0.0,         0.0,         0.0,         0.0,         0.0
"Line.SW_FP2842"        ,   2,        -0.0,         0.0
"Line.SW_FP6503"        ,   1,         0.0,        -0.0,         0.0,         0.0,         0.0,         0.0
"Line.SW_FP6503"        ,   2,        -0.0,         0.0
"Line.SW_FP7075"        ,   1,      -216.1,       -98.1,         0.0,         0.0,         0.0,         0.0
"Line.SW_FP7075"        ,   2,       216.1,        98.1
"Line.SW_FP7613"        ,   1,         0.0,         0.0,         0.0,         0.0,         0.0,         0.0
"Line.SW_FP7613"        ,   2,        -0.0,        -0.0
"Line.SW_FP8288_DP_39175",   1,      -269.9,      -122.5,         0.0,         0.0,         0.0,         0.0
"Line.SW_FP8288_DP_39175",   2,       269.9,       122.5
"Line.SW_FX9322"        ,   1,        84.2,        38.2,         0.0,         0.0,         0.0,         0.0
"Line.SW_FX9322"        ,   2,       -84.2,       -38.2
"Line.SW_FP6944"        ,   1,         0.0,         0.0,         0.0,         0.0,         0.0,         0.0
"Line.SW_FP6944"        ,   2,        -0.0,        -0.0
"Line.SW_FP5619"        ,   1,      -406.3,      -199.9,         0.0,         0.0,         0.0,         0.0
"Line.SW_FP5619"        ,   2,       406.3,       199.9
"Line.SW_FT1731"        ,   1,        -0.0,         0.0,         0.0,         0.0,         0.0,         0.0
"Line.SW_FT1731"        ,   2,         0.0,        -0.0
"Line.SW_FT1683"        ,   1,         0.0,         0.0,         0.0,         0.0,         0.0,         0.0
"Line.SW_FT1683"        ,   2,        -0.0,        -0.0
"Line.SW_FA8268"        ,   1,     -1978.1,      -899.9,         0.0,         0.0,         0.0,         0.0
"Line.SW_FA8268"        ,   2,      1978.1,       899.9
"Line.SW_FIC1810"       ,   1,        -0.0,         0.0,         0.0,         0.0,         0.0,         0.0
"Line.SW_FIC1810"       ,   2,         0.0,        -0.0
"Transformer.T_FF3296"  ,   1,         9.7,         4.4,         0.0,         0.0,         0.0,         0.0
"Transformer.T_FF3296"  ,   2,        -9.6,        -4.1
"Transformer.T_FT1678"  ,   1,        10.0,         4.6,         0.0,         0.0,         0.0,         0.0
"Transformer.T_FT1678"  ,   2,        -9.9,        -4.2
"Transformer.T_FT1731"  ,   1,        38.9,        17.6,         0.0,         0.0,         0.0,         0.0
"Transformer.T_FT1731"  ,   2,       -38.5,       -16.4
"Transformer.T_FM0342"  ,   1,        36.0,        16.3,         0.0,         0.0,         0.0,         0.0
"Transformer.T_FM0342"  ,   2,       -35.7,       -15.2
"Transformer.T_FP5503"  ,   1,       108.7,        49.3,         0.0,         0.0,         0.0,         0.0
"Transformer.T_FP5503"  ,   2,      -107.7,       -45.9
"Transformer.T_FIC1143" ,   1,       108.2,        49.1,         0.0,         0.0,         0.0,         0.0
"Transformer.T_FIC1143" ,   2,      -107.2,       -45.7
"Transformer.T_FT6848"  ,   1,        21.8,         9.9,         0.0,         0.0,         0.0,         0.0
"Transformer.T_FT6848"  ,   2,       -21.6,        -9.2
"Transformer.T_FP8139"  ,   1,       108.3,        49.1,         0.0,         0.0,         0.0,         0.0
"Transformer.T_FP8139"  ,   2,      -107.2,       -45.7
"Transformer.T_FT6778"  ,   1,        72.0,        32.7,         0.0,         0.0,         0.0,         0.0
"Transformer.T_FT6778"  ,   2,       -71.3,       -30.4
"Transformer.T_FZ1928"  ,   1,       108.0,        49.0,         0.0,         0.0,         0.0,         0.0
"Transformer.T_FZ1928"  ,   2,      -106.9,       -45.5
"Transformer.T_FT1738"  ,   1,        24.1,        10.9,         0.0,         0.0,         0.0,         0.0
"Transformer.T_FT1738"  ,   2,       -23.9,       -10.2
"Transformer.T_FIC1411" ,   1,         7.2,         3.3,         0.0,         0.0,         0.0,         0.0
"Transformer.T_FIC1411" ,   2,        -7.2,        -3.0
"Transformer.T_FP4629"  ,   1,        14.6,         6.6,         0.0,         0.0,         0.0,         0.0
"Transformer.T_FP4629"  ,   2,       -14.4,        -6.1
"Transformer.T_FP7483"  ,   1,        76.3,        34.6,         0.0,         0.0,         0.0,         0.0
"Transformer.T_FP7483"  ,   2,       -75.5,       -32.2
"Transformer.T_FZ4318"  ,   1,         8.1,         3.7,         0.0,         0.0,         0.0,         0.0
"Transformer.T_FZ4318"  ,   2,        -8.0,        -3.4
"Transformer.T_FF3486"  ,   1,        21.7,         9.9,         0.0,         0.0,         0.0,         0.0
"Transformer.T_FF3486"  ,   2,       -21.5,        -9.2
"Transformer.T_FZ8025"  ,   1,        72.4,        32.9,         0.0,         0.0,         0.0,         0.0
"Transformer.T_FZ8025"  ,   2,       -71.7,       -30.6
"Transformer.T_FP0718"  ,   1,        58.3,        26.5,         0.0,         0.0,         0.0,         0.0
"Transformer.T_FP0718"  ,   2,       -57.7,       -24.6
"Transformer.T_FT7047"  ,   1,         7.2,         3.3,         0.0,         0.0,         0.0,         0.0
"Transformer.T_FT7047"  ,   2,        -7.1,        -3.0
"Transformer.T_FP8333"  ,   1,       109.5,        49.7,         0.0,         0.0,         0.0,         0.0
"Transformer.T_FP8333"  ,   2,      -108.4,       -46.2
"Transformer.T_FP5552"  ,   1,       108.7,        49.3,         0.0,         0.0,         0.0,         0.0
"Transformer.T_FP5552"  ,   2,      -107.6,       -45.8
"Transformer.T_FT6849"  ,   1,       109.6,        49.7,         0.0,         0.0,         0.0,         0.0
"Transformer.T_FT6849"  ,   2,      -108.5,       -46.2
"Transformer.T_FM1129"  ,   1,        72.2,        32.8,         0.0,         0.0,         0.0,         0.0
"Transformer.T_FM1129"  ,   2,       -71.5,       -30.4
"Transformer.T_FZ3915"  ,   1,        10.2,         4.6,         0.0,         0.0,         0.0,         0.0
"Transformer.T_FZ3915"  ,   2,       -10.1,        -4.3
"Transformer.T_FP8288"  ,   1,        54.0,        24.5,         0.0,         0.0,         0.0,         0.0
"Transformer.T_FP8288"  ,   2,       -53.5,       -22.8
"Transformer.T_FIC1374" ,   1,       108.0,        49.0,         0.0,         0.0,         0.0,         0.0
"Transformer.T_FIC1374" ,   2,      -106.9,       -45.5
"Transformer.T_FT1737"  ,   1,        10.4,         4.7,         0.0,         0.0,         0.0,         0.0
"Transformer.T_FT1737"  ,   2,       -10.3,        -4.4
"Transformer.T_FX9286"  ,   1,         9.7,         4.4,         0.0,         0.0,         0.0,         0.0
"Transformer.T_FX9286"  ,   2,        -9.6,        -4.1
"Transformer.T_FT6845"  ,   1,        21.7,         9.8,         0.0,         0.0,         0.0,         0.0
"Transformer.T_FT6845"  ,   2,       -21.5,        -9.1
"Transformer.T_FT6887"  ,   1,         7.4,         3.3,         0.0,         0.0,         0.0,         0.0
"Transformer.T_FT6887"  ,   2,        -7.3,        -3.1
"Transformer.T_FX9322"  ,   1,        10.4,         4.7,         0.0,         0.0,         0.0,         0.0
"Transformer.T_FX9322"  ,   2,       -10.3,        -4.4
"Transformer.T_FF1104"  ,   1,        78.2,        35.5,         0.0,         0.0,         0.0,         0.0
"Transformer.T_FF1104"  ,   2,       -77.4,       -33.0
"Transformer.T_FX5030"  ,   1,        54.1,        24.6,         0.0,         0.0,         0.0,         0.0
"Transformer.T_FX5030"  ,   2,       -53.6,       -22.8
"Transformer.T_FF1105"  ,   1,        58.3,        26.4,         0.0,         0.0,         0.0,         0.0
"Transformer.T_FF1105"  ,   2,       -57.7,       -24.6
"Transformer.T_FX9334"  ,   1,       108.1,        49.0,         0.0,         0.0,         0.0,         0.0
"Transformer.T_FX9334"  ,   2,      -107.0,       -45.6
"Transformer.T_FX9343"  ,   1,        10.4,         4.7,         0.0,         0.0,         0.0,         0.0
"Transformer.T_FX9343"  ,   2,       -10.3,        -4.4
"Transformer.T_FT7045"  ,   1,         9.7,         4.4,         0.0,         0.0,         0.0,         0.0
"Transformer.T_FT7045"  ,   2,        -9.6,        -4.1
"Transformer.T_FZ0191"  ,   1,         7.8,         3.5,         0.0,         0.0,         0.0,         0.0
"Transformer.T_FZ0191"  ,   2,        -7.7,        -3.3
"Transformer.T_FT2704"  ,   1,        54.5,        24.7,         0.0,         0.0,         0.0,         0.0
"Transformer.T_FT2704"  ,   2,       -53.9,       -23.0
"Transformer.T_FT6782"  ,   1,        21.7,         9.8,         0.0,         0.0,         0.0,         0.0
"Transformer.T_FT6782"  ,   2,       -21.5,        -9.1
"Transformer.T_FP2914"  ,   1,       108.7,        49.3,         0.0,         0.0,         0.0,         0.0
"Transformer.T_FP2914"  ,   2,      -107.6,       -45.8
"Transformer.T_FT6829"  ,   1,        21.7,         9.8,         0.0,         0.0,         0.0,         0.0
"Transformer.T_FT6829"  ,   2,       -21.4,        -9.1
"Transformer.T_FP7255"  ,   1,       382.1,       188.9,       100.8,        49.8,         0.0,         0.0
"Transformer.T_FP7255"  ,   2,      -372.7,      -158.8
"Transformer.T_FT1679"  ,   1,        10.3,         4.7,         0.0,         0.0,         0.0,         0.0
"Transformer.T_FT1679"  ,   2,       -10.2,        -4.3
"Transformer.T_FP7380"  ,   1,       107.9,        49.0,         0.0,         0.0,         0.0,         0.0
"Transformer.T_FP7380"  ,   2,      -106.9,       -45.5
"Transformer.T_FX9287"  ,   1,         7.3,         3.3,         0.0,         0.0,         0.0,         0.0
"Transformer.T_FX9287"  ,   2,        -7.2,        -3.1
"Transformer.T_FT1683"  ,   1,         7.8,         3.6,         0.0,         0.0,         0.0,         0.0
"Transformer.T_FT1683"  ,   2,        -7.8,        -3.3
"Transformer.T_FT6812"  ,   1,       108.0,        49.0,         0.0,         0.0,         0.0,         0.0
"Transformer.T_FT6812"  ,   2,      -106.9,       -45.6
"Transformer.T_FZ6330"  ,   1,         7.2,         3.3,         0.0,         0.0,         0.0,         0.0
"Transformer.T_FZ6330"  ,   2,        -7.1,        -3.0
"Transformer.T_FP8285"  ,   1,        79.2,        35.9,         0.0,         0.0,         0.0,         0.0
"Transformer.T_FP8285"  ,   2,       -78.4,       -33.4
"Transformer.T_FT6840"  ,   1,        54.1,        24.5,         0.0,         0.0,         0.0,         0.0
"Transformer.T_FT6840"  ,   2,       -53.5,       -22.8
"Transformer.T_FX0837"  ,   1,        10.6,         4.8,         0.0,         0.0,         0.0,         0.0
"Transformer.T_FX0837"  ,   2,       -10.5,        -4.5
"Transformer.T_FX3749"  ,   1,         7.8,         3.5,         0.0,         0.0,         0.0,         0.0
"Transformer.T_FX3749"  ,   2,        -7.7,        -3.3
"Transformer.T_FZ2829"  ,   1,         2.6,         1.2,         0.0,         0.0,         0.0,         0.0
"Transformer.T_FZ2829"  ,   2,        -2.6,        -1.1
"Load.L_FF3296"         ,   1,         9.6,         4.1
"Load.L_FT1678"         ,   1,         9.9,         4.2
"Load.L_FT1731"         ,   1,        38.5,        16.4
"Load.L_FM0342"         ,   1,        35.7,        15.2
"Load.L_FP5503"         ,   1,       107.7,        45.9
"Load.L_FIC1143"        ,   1,       107.2,        45.7
"Load.L_FT6848"         ,   1,        21.6,         9.2
"Load.L_FP8139"         ,   1,       107.2,        45.7
"Load.L_FT6778"         ,   1,        71.3,        30.4
"Load.L_FZ1928"         ,   1,       106.9,        45.5
"Load.L_FT1738"         ,   1,        23.9,        10.2
"Load.L_FIC1411"        ,   1,         7.2,         3.0
"Load.L_FP4629"         ,   1,        14.4,         6.1
"Load.L_FP7483"         ,   1,        75.5,        32.2
"Load.L_FZ4318"         ,   1,         8.0,         3.4
"Load.L_FF3486"         ,   1,        21.5,         9.2
"Load.L_FZ8025"         ,   1,        71.7,        30.6
"Load.L_FP0718"         ,   1,        57.7,        24.6
"Load.L_FT7047"         ,   1,         7.1,         3.0
"Load.L_FP8333"         ,   1,       108.4,        46.2
"Load.L_FP5552"         ,   1,       107.6,        45.8
"Load.L_FT6849"         ,   1,       108.5,        46.2
"Load.L_FM1129"         ,   1,        71.5,        30.4
"Load.L_FZ3915"         ,   1,        10.1,         4.3
"Load.L_FP8288"         ,   1,        53.5,        22.8
"Load.L_FIC1374"        ,   1,       106.9,        45.5
"Load.L_FT1737"         ,   1,        10.3,         4.4
"Load.L_FX9286"         ,   1,         9.6,         4.1
"Load.L_FT6845"         ,   1,        21.5,         9.1
"Load.L_FT6887"         ,   1,         7.3,         3.1
"Load.L_FX9322"         ,   1,        10.3,         4.4
"Load.L_FF1104"         ,   1,        77.4,        33.0
"Load.L_FX5030"         ,   1,        53.6,        22.8
"Load.L_FF1105"         ,   1,        57.7,        24.6
"Load.L_FX9334"         ,   1,       107.0,        45.6
"Load.L_FX9343"         ,   1,        10.3,         4.4
"Load.L_FT7045"         ,   1,         9.6,         4.1
"Load.L_FZ0191"         ,   1,         7.7,         3.3
"Load.L_FT2704"         ,   1,        53.9,        23.0
"Load.L_FT6782"         ,   1,        21.5,         9.1
"Load.L_FP2914"         ,   1,       107.6,        45.8
"Load.L_FT6829"         ,   1,        21.4,         9.1
"Load.L_FP7255"         ,   1,       372.7,       158.8
"Load.L_FT1679"         ,   1,        10.2,         4.3
"Load.L_FP7380"         ,   1,       106.9,        45.5
"Load.L_FX9287"         ,   1,         7.2,         3.1
"Load.L_FT1683"         ,   1,         7.8,         3.3
"Load.L_FT6812"         ,   1,       106.9,        45.6
"Load.L_FZ6330"         ,   1,         7.1,         3.0
"Load.L_FP8285"         ,   1,        78.4,        33.4
"Load.L_FT6840"         ,   1,        53.5,        22.8
"Load.L_FX0837"         ,   1,        10.5,         4.5
"Load.L_FX3749"         ,   1,         7.7,         3.3
"Load.L_FZ2829"         ,   1,         2.6,         1.1
